src/examples/case14_twoarea/two_area_nolim_1_4/results/res_branch_2.csv
branch,from_bus,to_bus,X,B,G,Bfr,Bto,p_from,p_to,q_from,q_to,p_loss,q_loss,s_from,s_to,rate_a,ang_deg,angmin,angmax
7,4,5,0.07018333333333335,-13.750861129582134,2.615635185180549,0.0,0.0,-0.5051459517944459,0.5083910222524762,0.02051796009274684,-0.003458045362698907,0.0032450704580303524,0.017059914730047934,0.5055624781376523,0.5084027828254368,Inf,-1.9362383467149238,-60.0001403060998,60.0001403060998
4,2,4,0.2938666666666667,-3.274849999726149,0.6475778135801491,0.028333333333333335,0.028333333333333335,0.48781620768162465,-0.4750069731258464,-0.04425601652701911,0.04862995691053628,0.01280923455577826,0.004373940383517169,0.4898196070756271,0.47748978756335636,Inf,7.772563481662018,-60.0001403060998,60.0001403060998
2,1,5,0.37173333333333336,-2.634446441553089,0.3829065851070123,0.041,0.041,0.6593676152460136,-0.6382924718310898,0.013177360736721055,0.04215770697377662,0.02107514341492378,0.055335067710497676,0.6594992758685947,0.6396831652103481,Inf,12.786187429274104,-60.0001403060998,60.0001403060998
3,2,3,0.32995,-2.9705137433791546,0.423047252012082,0.0365,0.0365,0.5461336639837606,-0.53314826256681,-0.0222082457058834,0.03568752225018854,0.012985401416950593,0.013479276544305144,0.5465850209378775,0.5343413413936506,Inf,9.703788138281096,-60.0001403060998,60.0001403060998
5,2,5,0.28980000000000006,-3.32235273589815,0.6528916090731525,0.028833333333333336,0.028833333333333336,0.3713217934409981,-0.3640227419389147,-0.055422820411942915,0.030754429611659598,0.007299051502083376,-0.024668390800283317,0.375435165250478,0.36531957460484404,Inf,5.836325134947093,-60.0001403060998,60.0001403060998
6,3,4,0.28505,-3.324436966625986,0.7815138436541214,0.010666666666666668,0.010666666666666668,-0.11837397411453493,0.1193079060878282,0.013296289053071455,-0.031722252581437294,0.0009339319732932644,-0.01842596352836584,0.11911838250350537,0.12345313995157246,Inf,-1.9312246566190794,-60.0001403060998,60.0001403060998
1,1,2,0.09861666666666669,-9.763222778777191,1.918653954227162,0.044000000000000004,0.044000000000000004,1.35899158721141,-1.327114057881796,-0.013177370653632508,0.07841322656651249,0.031877529329614074,0.06523585591287999,1.359055472454576,1.3294285827858743,Inf,6.949862294327009,-60.0001403060998,60.0001403060998
